Version 4.1
SHEET 1 920 820
WIRE -320 -480 -512 -480
WIRE -304 -480 -320 -480
WIRE -176 -480 -224 -480
WIRE -512 -416 -512 -480
WIRE -176 -416 -240 -416
WIRE -512 -320 -512 -336
WIRE -512 -320 -592 -320
WIRE -592 -304 -592 -320
WIRE -176 -288 -560 -288
WIRE -672 -272 -768 -272
WIRE -624 -272 -672 -272
WIRE -528 -256 -560 -256
WIRE -320 -240 -320 -480
WIRE -320 -240 -592 -240
WIRE -672 -192 -672 -272
WIRE -528 -192 -528 -256
WIRE -528 -192 -672 -192
WIRE -768 -176 -768 -272
WIRE -320 -112 -320 -240
WIRE -320 -112 -608 -112
WIRE -768 -48 -768 -96
WIRE -768 16 -768 -16
WIRE -320 64 -320 -112
WIRE -320 64 -800 64
WIRE -800 112 -800 64
WIRE -688 112 -720 112
WIRE -240 112 -240 -416
WIRE -240 112 -688 112
WIRE -320 160 -320 64
WIRE -224 160 -320 160
WIRE -176 160 -224 160
WIRE -512 224 -512 -320
WIRE -304 224 -512 224
WIRE -224 224 -304 224
WIRE -176 224 -224 224
WIRE -304 656 -304 224
WIRE -608 736 -608 -112
WIRE -528 736 -608 736
WIRE -304 736 -432 736
WIRE -176 736 -304 736
FLAG -768 16 0
FLAG -688 192 0
SYMBOL DIP40 -32 -384 R0
SYMATTR InstName PIC18F47Q84
SYMBOL res -208 -496 R90
WINDOW 0 109 35 Invisible 2
WINDOW 3 32 56 VTop 2
SYMATTR InstName k
SYMATTR Value 10k
SYMBOL voltage -512 -432 R0
WINDOW 123 0 0 Left 0
WINDOW 39 0 0 Left 0
SYMATTR InstName Power_Source
SYMATTR Value 5
SYMBOL cap -240 160 R0
WINDOW 0 -29 25 Invisible 2
WINDOW 3 -51 29 Left 2
SYMATTR InstName _
SYMATTR Value .1µf
SYMBOL OpAmps\\UniversalOpAmp -592 -272 R180
SYMATTR InstName LM741CN
SYMBOL Button -480 720 R0
SYMATTR InstName X1
SYMBOL res -320 640 R0
WINDOW 0 66 -19 Invisible 2
SYMATTR InstName 0
SYMATTR Value 270
SYMBOL res -784 -192 R0
WINDOW 0 36 40 Invisible 2
SYMATTR InstName R1
SYMATTR Value 46
SYMBOL Speaker -768 -32 R0
SYMATTR InstName SP-3605
SYMBOL res -704 96 R0
SYMATTR InstName R2
SYMATTR Value 2.2k
SYMBOL res -704 96 R90
WINDOW 0 0 56 VBottom 2
WINDOW 3 32 56 Invisible 2
SYMATTR InstName PTV09A-4020U-B103,10-10k
